FINAL SINGLE POINT ENERGY      -154.238745621000

VIBRATIONAL FREQUENCIES
   0:       0.00 cm**-1
   1:       0.00 cm**-1
   2:       0.00 cm**-1
   3:       0.00 cm**-1
   4:       0.00 cm**-1
   5:       0.00 cm**-1
   6:     412.30 cm**-1
   7:     833.70 cm**-1
   8:    1247.20 cm**-1
   9:    1718.40 cm**-1
  10:    3056.60 cm**-1
  11:    3150.10 cm**-1

IR SPECTRUM
   6:     412.30       8.50
   7:     833.70      17.20
   8:    1247.20      44.10
   9:    1718.40     210.00
  10:    3056.60      12.00
  11:    3150.10      32.00

THERMOCHEMISTRY AT 298.15 K
Total Enthalpy                    ...   -154.173200000 Eh
ORCA TERMINATED NORMALLY
